benzene
  MOE2019           3D

 12 12  0  0  0  0  0  0  0  0999 V2000
   25.9780    5.3270    4.7790 C   0  0  0  0  0  0  0  0  0  0  0  0
   26.3950    5.0740    3.4990 C   0  0  0  0  0  0  0  0  0  0  0  0
   26.4980    6.3790    5.4690 C   0  0  0  0  0  0  0  0  0  0  0  0
   27.3400    5.8600    2.9020 C   0  0  0  0  0  0  0  0  0  0  0  0
   27.4200    7.1960    4.8560 C   0  0  0  0  0  0  0  0  0  0  0  0
   27.8370    6.9210    3.5690 C   0  0  0  0  0  0  0  0  0  0  0  0
   25.2370    4.6920    5.2410 H   0  0  0  0  0  0  0  0  0  0  0  0
   25.9720    4.2430    2.9550 H   0  0  0  0  0  0  0  0  0  0  0  0
   26.1900    6.5700    6.4860 H   0  0  0  0  0  0  0  0  0  0  0  0
   27.6860    5.6330    1.9040 H   0  0  0  0  0  0  0  0  0  0  0  0
   27.8170    8.0520    5.3810 H   0  0  0  0  0  0  0  0  0  0  0  0
   28.5660    7.5600    3.0930 H   0  0  0  0  0  0  0  0  0  0  0  0
  1  2  2  0  0  0  0
  1  3  1  0  0  0  0
  1  7  1  0  0  0  0
  2  4  1  0  0  0  0
  2  8  1  0  0  0  0
  3  5  2  0  0  0  0
  3  9  1  0  0  0  0
  4  6  2  0  0  0  0
  4 10  1  0  0  0  0
  5  6  1  0  0  0  0
  5 11  1  0  0  0  0
  6 12  1  0  0  0  0
M  END
$$$$
phenol
  MOE2019           3D

 13 13  0  0  0  0  0  0  0  0999 V2000
   25.9780    5.3270    4.7790 C   0  0  0  0  0  0  0  0  0  0  0  0
   26.3950    5.0740    3.4990 C   0  0  0  0  0  0  0  0  0  0  0  0
   26.4980    6.3790    5.4690 C   0  0  0  0  0  0  0  0  0  0  0  0
   27.3400    5.8600    2.9020 C   0  0  0  0  0  0  0  0  0  0  0  0
   27.4200    7.1960    4.8560 C   0  0  0  0  0  0  0  0  0  0  0  0
   27.8370    6.9210    3.5690 C   0  0  0  0  0  0  0  0  0  0  0  0
   25.2370    4.6920    5.2410 H   0  0  0  0  0  0  0  0  0  0  0  0
   25.9720    4.2430    2.9550 H   0  0  0  0  0  0  0  0  0  0  0  0
   26.1900    6.5700    6.4860 H   0  0  0  0  0  0  0  0  0  0  0  0
   27.7973    5.5600    1.5829 O   0  0  0  0  0  0  0  0  0  0  0  0
   28.4614    6.1609    1.2372 H   0  0  0  0  0  0  0  0  0  0  0  0
   27.8170    8.0520    5.3810 H   0  0  0  0  0  0  0  0  0  0  0  0
   28.5660    7.5600    3.0930 H   0  0  0  0  0  0  0  0  0  0  0  0
  1  2  2  0  0  0  0
  1  3  1  0  0  0  0
  1  7  1  0  0  0  0
  2  4  1  0  0  0  0
  2  8  1  0  0  0  0
  3  5  2  0  0  0  0
  3  9  1  0  0  0  0
  4  6  2  0  0  0  0
  4 10  1  0  0  0  0
  5  6  1  0  0  0  0
  5 12  1  0  0  0  0
  6 13  1  0  0  0  0
 10 11  1  0  0  0  0
M  END
$$$$
chloro
  MOE2019           3D

 12 12  0  0  0  0  0  0  0  0999 V2000
   25.9664    5.3133    4.8319 C   0  0  0  0  0  0  0  0  0  0  0  0
   26.3763    5.0451    3.5296 C   0  0  0  0  0  0  0  0  0  0  0  0
   26.1437    6.5854    5.3725 C   0  0  0  0  0  0  0  0  0  0  0  0
   26.9665    6.0539    2.7664 C   0  0  0  0  0  0  0  0  0  0  0  0
   26.7322    7.5919    4.6091 C   0  0  0  0  0  0  0  0  0  0  0  0
   26.8657    8.5593    5.0227 H   0  0  0  0  0  0  0  0  0  0  0  0
   27.1446    7.3287    3.3066 C   0  0  0  0  0  0  0  0  0  0  0  0
   27.5929    8.0879    2.7198 H   0  0  0  0  0  0  0  0  0  0  0  0
   25.5180    4.5492    5.4150 H   0  0  0  0  0  0  0  0  0  0  0  0
   26.2446    4.0811    3.1112 H   0  0  0  0  0  0  0  0  0  0  0  0
   25.8306    6.7877    6.3653 H   0  0  0  0  0  0  0  0  0  0  0  0
   27.4796    5.7227    1.1442 Cl  0  0  0  0  0  0  0  0  0  0  0  0
  1  2  2  0  0  0  0
  1  3  1  0  0  0  0
  1  9  1  0  0  0  0
  2  4  1  0  0  0  0
  2 10  1  0  0  0  0
  3  5  2  0  0  0  0
  3 11  1  0  0  0  0
  4  7  2  0  0  0  0
  4 12  1  0  0  0  0
  5  6  1  0  0  0  0
  5  7  1  0  0  0  0
  7  8  1  0  0  0  0
M  END
$$$$
